
     RDKit          3D

 10 10  0  0  0  0  0  0  0  0999 V2000
    9.5540    1.8700   -2.7680 C   0  0  1  0  0  0  0  0  0  0  0  0
    8.2040    1.9250   -3.3360 O   0  0  0  0  0  0  0  0  0  0  0  0
    7.2300    2.7260   -2.5970 C   0  0  2  0  0  0  0  0  0  0  0  0
    7.6860    4.1090   -2.5080 O   0  0  0  0  0  0  0  0  0  0  0  0
    7.0590    2.1140   -1.1780 C   0  0  2  0  0  0  0  0  0  0  0  0
    6.0800    2.8520   -0.3540 N   0  0  0  0  0  0  0  0  0  0  0  0
    8.4300    2.0280   -0.4550 C   0  0  0  0  0  0  0  0  0  0  0  0
    9.4950    1.3170   -1.3180 C   0  0  0  0  0  0  0  0  0  0  0  0
   10.5180    1.0320   -3.6330 C   0  0  0  0  0  0  0  0  0  0  0  0
   10.3310    1.1780   -5.0860 N   0  0  0  0  0  0  0  0  0  0  0  0
  2  1  1  0
  3  2  1  0
  3  4  1  1
  5  3  1  0
  5  6  1  1
  7  5  1  0
  8  7  1  0
  8  1  1  0
  1  9  1  6
 10  9  1  0
M  END
$$$$
